%nproc=16
%mem=7000MW
#p b3lyp 6-21G nosymm mmpol=(conver=8,nofmm,inversion) TD=(Nstates=3)  

ONIOM QM/MMPol HL=Cytosine LL=Guanine FREE (Init Geom MP2)
CHARGES = ff02r1

1 1
 C                     42.779    46.352    48.705
 C                     42.193    47.661    48.854
 C                     40.832    47.843    48.966
 C                     40.011    46.754    48.636
 N                     39.859    44.473    47.746
 C                     38.559    44.669    47.009
 C                     40.741    43.442    47.396
 C                     40.187    42.274    46.712
 S                     42.467    43.774    47.725
 C                     41.922    45.362    48.31
 C                     40.562    45.529    48.188
 C                     40.676    38.859    44.971
 C                     39.954    37.758    44.398
 C                     38.578    37.892    44.206
 C                     37.967    39.068    44.46
 C                     38.587    40.133    45.021
 C                     39.977    40.021    45.389
 C                     40.699    41.083    46.119
 C                     42.099    40.859    46.251
 C                     42.707    39.73     45.837
 N                     41.97     38.704    45.26
 C                     42.729    37.644    44.637
 H                     42.331    36.712    45.046
 H                     43.832    46.139    48.545
 H                     42.806    48.548    48.994
 H                     40.289    48.766    49.149
 H                     38.932    46.866    48.708
 H                     38.602    44.646    45.917
 H                     38.118    45.628    47.294
 H                     37.828    43.875    47.186
 H                     39.099    42.259    46.691
 H                     40.341    36.796    44.072
 H                     38.006    37.175    43.623
 H                     36.969    39.24     44.065
 H                     38.031    41.065    45.089
 H                     42.812    41.489    46.773
 H                     43.778    39.588    45.911
 H                     42.687    37.663    43.545
 H                     43.762    37.704    44.988

